 &time_control
 run_days                            = 10,
 run_hours                           = 18,
 run_minutes                         = 0,
 run_seconds                         = 0,
 start_year                          = 2014, 2014, 2014,
 start_month                         = 06,   06,   06,
 start_day                           = 27,   08,   08,
 start_hour                          = 00,   00,   00,
 start_minute                        = 00,   00,   00,
 start_second                        = 00,   00,   00,
 end_year                            = 2014, 2014, 2014,
 end_month                           = 07,   06,   06,
 end_day                             = 07,   18,   18,
 end_hour                            = 18,   18,   18,
 end_minute                          = 00,   00,   00,
 end_second                          = 00,   00,   00,
 interval_seconds                    = 21600,
 input_from_file                     = .true.,.true.,.true.,
 history_interval                    = 60,   60,   60,
 frames_per_outfile                  = 24,   24,   24,
 restart                             = .false.,
 restart_interval                    = 7200,
 io_form_history                     = 2,
 io_form_restart                     = 2,
 io_form_input                       = 2,
 io_form_boundary                    = 2,
 auxinput1_inname                    = "metoa_em.d<domain>.<date>",
 auxinput4_inname                    = 'wrflowinp_d<domain>',
 auxinput6_inname                    = 'wrfbiochemi_d<domain>',
 auxinput7_inname                    = 'wrffirechemi_d<domain>.<date>',
 auxinput8_inname                    = 'wrfchemi_gocart_bg_d<domain>',
 auxinput12_inname                   = 'wrf_chem_input',
 auxinput13_inname                   = 'wrfchemv_d<domain>',
 auxinput4_interval                  = 360, 360, 360,
 auxinput5_interval_m                = 60, 60, 60,
 auxinput7_interval_m                = 86400, 86400, 86400,
 auxinput8_interval_m                = 86400, 86400, 86400,
 auxinput11_interval_s               = 180, 180, 60,
 auxinput11_end_h                    = 99999, 99999, 99999,
 auxinput13_interval_m               = 86400, 86400, 86400,
 io_form_auxinput2                   = 2,
 io_form_auxinput4                   = 2,
 io_form_auxinput5                   = 2,
 io_form_auxinput6                   = 2,
 io_form_auxinput7                   = 0,
 io_form_auxinput8                   = 0,
 io_form_auxinput12                  = 0,
 io_form_auxinput13                  = 0,
 frames_per_auxinput5                = 12,    12,    12,
 frames_per_auxinput6                = 1,     1,     1,
 frames_per_auxinput7                = 1,     1,     1,
 frames_per_auxinput8                = 1,     1,     1,
 frames_per_auxinput13               = 1,     1,     1,
 debug_level                         = 0,
/

 
&domains
 time_step                           = 90,
 time_step_fract_num                 = 0,
 time_step_fract_den                 = 1,
 max_dom                             = 1,
 e_we                                = 182,   124,   115,
 e_sn                                = 156,   91,    88,
 e_vert                              = 31,    31,    31,
 num_metgrid_levels                  = 27,
 num_metgrid_soil_levels             = 4,
 dx                                  = 27000, 9000,  3000,
 dy                                  = 27000, 9000,  3000,
 grid_id                             = 1,     2,     3,
 parent_id                           = 0,     1,     2,
 i_parent_start                      = 1,     80,    28,
 j_parent_start                      = 1,     75,    23,
 parent_grid_ratio                   = 1,     3,     3,
 parent_time_step_ratio              = 1,     3,     3,
 p_top_requested                     = 10000,
 feedback                            = 1,
 smooth_option                       = 1
 zap_close_levels                    = 50
 interp_type                         = 1
 t_extrap_type                       = 2
 force_sfc_in_vinterp                = 0
 use_levels_below_ground             = .true.
 use_surface                         = .true.
 lagrange_order                      = 1
 /
 
&physics
 mp_physics                          = 2,     2,     2, 
 progn                               = 1,     0,     0,
 ra_lw_physics                       = 1,     1,     1,
 ra_sw_physics                       = 5,     2,     2,
 radt                                = 30,    30,    30,
 sf_sfclay_physics                   = 2,     1,     1,
 sf_surface_physics                  = 2,     2,     2,
 bl_pbl_physics                      = 2,     1,     1,
 bldt                                = 0,     0,     0,
 cu_physics                          = 5,     0,     0,
 cu_diag                             = 1,     0,     0,
 cudt                                = 0,     0,     0,
 topo_wind                           = 0,     1,     1,
 sst_update                          = 1,
 ishallow                            = 0,
 isfflx                              = 1,
 ifsnow                              = 0,
 icloud                              = 1,
 surface_input_source                = 1,
 num_soil_layers                     = 4,
 sf_urban_physics                    = 1,     1,     1,
 mp_zero_out                         = 2,
 mp_zero_out_thresh                  = 1.e-12
 maxiens                             = 1,
 maxens                              = 3,
 maxens2                             = 3,
 maxens3                             = 16,
 ensdim                              = 144,
 cu_rad_feedback                     = .true.,
 /

 &fdda
 obs_nudge_opt                       = 1,     0,     0,
 max_obs                             = 150000,
 fdda_start                          = 0.,    0.,    0.,
 fdda_end                            = 99999.,99999.,99999.,
 obs_nudge_wind                      = 1,     1,     1,
 obs_coef_wind                       = 12.E-4,12.E-4, 6.E-3,
 obs_nudge_temp                      = 1,     1,     1,
 obs_coef_temp                       = 6.E-4, 6.E-4, 6.E-4,
 obs_nudge_mois                      = 1,     1,     1,
 obs_coef_mois                       = 6.E-4, 6.E-4, 6.E-4,
 obs_rinxy                           = 240.,  180.,  90.,
 obs_rinsig                          = 0.1,
 obs_twindo                          = 0.6666667,0.6666667,0.6666667,
 obs_npfi                            = 10,
 obs_ionf                            = 2,     2,     2,
 obs_idynin                          = 0,
 obs_dtramp                          = 40.,
 obs_prt_freq                        = 10,    10,    10,
 obs_prt_max                         = 10
 obs_ipf_errob                       = .true.
 obs_ipf_nudob                       = .true.
 obs_ipf_in4dob                      = .true.
 obs_no_pbl_nudge_uv                 = 0
 obs_no_pbl_nudge_t                  = 0
 obs_no_pbl_nudge_q                  = 0
 obs_sfc_scheme_horiz                = 0
 obs_sfc_scheme_vert                 = 0
 obs_max_sndng_gap                   = 80
 obs_nudgezfullr1_uv                 = 50
 obs_nudgezrampr1_uv                 = 50
 obs_nudgezfullr2_uv                 = 50
 obs_nudgezrampr2_uv                 = 50
 obs_nudgezfullr4_uv                 = -5000
 obs_nudgezrampr4_uv                 = 50
 obs_nudgezfullr1_t                  = 50
 obs_nudgezrampr1_t                  = 50
 obs_nudgezfullr2_t                  = 50
 obs_nudgezrampr2_t                  = 50
 obs_nudgezfullr4_t                  = -5000
 obs_nudgezrampr4_t                  = 50
 obs_nudgezfullr1_q                  = 50
 obs_nudgezrampr1_q                  = 50
 obs_nudgezfullr2_q                  = 50
 obs_nudgezrampr2_q                  = 50
 obs_nudgezfullr4_q                  = -5000
 obs_nudgezrampr4_q                  = 50
 obs_nudgezfullmin                   = 50
 obs_nudgezrampmin                   = 50
 obs_nudgezmax                       = 3000
 obs_sfcfact                         = 1.0
 obs_sfcfacr                         = 1.0
 obs_dpsmx                           = 7.5 
 grid_sfdda                          = 1,     0,     0,
 sgfdda_inname                       = "wrfsfdda_d<domain>",
 sgfdda_end_h                        = 99999, 99999, 99999,
 sgfdda_interval_m                   = 180,   180,   180,
 io_form_sgfdda                      = 2,
 guv_sfc                             = 0.0003,     0.0003,     0.0003,
 gt_sfc                              = 0.0003,     0.0003,     0.0003,
 gq_sfc                              = 0.0003,     0.0003,     0.0003,
 rinblw                              = 250.,
 grid_fdda                           = 1,     0,     0,
 gfdda_inname                        = "wrffdda_d<domain>",
 gfdda_end_h                         = 99999, 99999, 99999,
 gfdda_interval_m                    = 360,   360,   360,
 fgdt                                = 0,     0,     0,
 if_no_pbl_nudging_uv                = 0,     0,     0,
 if_no_pbl_nudging_t                 = 1,     1,     1,
 if_no_pbl_nudging_q                 = 1,     1,     1,
 if_zfac_uv                          = 0,     0,     0,
  k_zfac_uv                          = 10,   10,    10,
 if_zfac_t                           = 0,     0,     0,
  k_zfac_t                           = 10,   10,    10,
 if_zfac_q                           = 0,     0,     0,
  k_zfac_q                           = 10,   10,    10,
 guv                                 = 0.0003,     0.0003,     0.0003,
 gt                                  = 0.0003,     0.0003,     0.0003,
 gq                                  = 0.0003,     0.0003,     0.0003,
 if_ramping                          = 1,
 dtramp_min                          = 60.0,
 io_form_gfdda                       = 2,
/

 &dynamics
 rk_ord                              = 3,
 w_damping                           = 0,
 diff_opt                            = 1,
 km_opt                              = 4,
 diff_6th_opt                        = 0,      0,      0,
 diff_6th_factor                     = 0.12,   0.12,   0.12,
 base_temp                           = 290.
 damp_opt                            = 0,
 zdamp                               = 5000.,  5000.,  5000.,
 dampcoef                            = 0.2,    0.2,   0.2
 khdif                               = 0,      0,      0,
 kvdif                               = 0,      0,      0,
 non_hydrostatic                     = .true., .true., .true.,
 moist_adv_opt                       = 2,      2,      2,
 scalar_adv_opt                      = 2,      2,      2,
 chem_adv_opt                        = 2,      2,      2,
 tke_adv_opt                         = 2,      2,      2,
 time_step_sound                     = 4,      4,      4,
 h_mom_adv_order                     = 5,      5,      5,
 v_mom_adv_order                     = 3,      3,      3,
 h_sca_adv_order                     = 5,      5,      5,
 v_sca_adv_order                     = 3,      3,      3,
 /

 &bdy_control
 spec_bdy_width                      = 5,
 spec_zone                           = 1,
 relax_zone                          = 4,
 specified                           = .true., .false.,.false.,
 nested                              = .false., .true., .true., 
 /

 &grib2
 /

 &namelist_quilt
 nio_tasks_per_group = 0,
 nio_groups = 1,
 /

 &chem
 kemit                               = 5,
 chem_opt                            = 170,        170,      170,
 bioemdt                             = 30,         30,       30,
 photdt                              = 30,         30,       30,
 chemdt                              = 0,          0,        0,
 io_style_emissions                  = 1,  
 emiss_inpt_opt                      = 101,        101,      101,
 emiss_opt                           = 4,          4,        4,    
 emiss_opt_vol                       = 0,          0,        0,
 emiss_ash_hgt                       = 20000.,
 chem_in_opt                         = 0,          0,        0,
 phot_opt                            = 2,          2,        2,
 gas_drydep_opt                      = 1,          1,        1,
 aer_drydep_opt                      = 1,          1,        1,
 bio_emiss_opt                       = 3,          3,        3,
 depo_fact                           = 0.25,    
 dust_opt                            = 0,
 dmsemis_opt                         = 0,
 seas_opt                            = 3,
 n2o5_hetchem                        = 2,
 gas_bc_opt                          = 1,          1,        1,
 gas_ic_opt                          = 1,          1,        1,
 aer_bc_opt                          = 1,          1,        1,
 aer_ic_opt                          = 1,          1,        1,
 gaschem_onoff                       = 1,          1,        1,
 aerchem_onoff                       = 1,          1,        1,
 wetscav_onoff                       = 0,          0,        0,
 cldchem_onoff                       = 0,          0,        0,
 vertmix_onoff                       = 1,          1,        1,
 chem_conv_tr                        = 1,          0,        0,
 conv_tr_wetscav                     = 1,          0,        0,
 conv_tr_aqchem                      = 0,          0,        0,
 biomass_burn_opt                    = 0,          0,        0,
 plumerisefire_frq                   = 30,         30,       30,
 have_bcs_chem                       = .true., .false., .false.,
 aer_ra_feedback                     = 1,
 aer_op_opt                          = 1,
 opt_pars_out                        = 0,
 diagnostic_chem                     = 0,
 /
